*HEADING
Dense uniform box lattice, 6x6x6 nodes - OmnibusCloud scale deck
Analytic answer: T is linear in x, from 100 at x=0 to 300 at x=1
*NODE, NSET=NALL
1, 0.000000, 0.000000, 0.000000
2, 0.200000, 0.000000, 0.000000
3, 0.400000, 0.000000, 0.000000
4, 0.600000, 0.000000, 0.000000
5, 0.800000, 0.000000, 0.000000
6, 1.000000, 0.000000, 0.000000
7, 0.000000, 0.200000, 0.000000
8, 0.200000, 0.200000, 0.000000
9, 0.400000, 0.200000, 0.000000
10, 0.600000, 0.200000, 0.000000
11, 0.800000, 0.200000, 0.000000
12, 1.000000, 0.200000, 0.000000
13, 0.000000, 0.400000, 0.000000
14, 0.200000, 0.400000, 0.000000
15, 0.400000, 0.400000, 0.000000
16, 0.600000, 0.400000, 0.000000
17, 0.800000, 0.400000, 0.000000
18, 1.000000, 0.400000, 0.000000
19, 0.000000, 0.600000, 0.000000
20, 0.200000, 0.600000, 0.000000
** ... 196 like lines cut
*ELEMENT, TYPE=C3D8, ELSET=EALL
1, 1, 2, 8, 7, 37, 38, 44, 43
2, 2, 3, 9, 8, 38, 39, 45, 44
3, 3, 4, 10, 9, 39, 40, 46, 45
4, 4, 5, 11, 10, 40, 41, 47, 46
5, 5, 6, 12, 11, 41, 42, 48, 47
6, 7, 8, 14, 13, 43, 44, 50, 49
7, 8, 9, 15, 14, 44, 45, 51, 50
8, 9, 10, 16, 15, 45, 46, 52, 51
9, 10, 11, 17, 16, 46, 47, 53, 52
10, 11, 12, 18, 17, 47, 48, 54, 53
11, 13, 14, 20, 19, 49, 50, 56, 55
12, 14, 15, 21, 20, 50, 51, 57, 56
13, 15, 16, 22, 21, 51, 52, 58, 57
14, 16, 17, 23, 22, 52, 53, 59, 58
15, 17, 18, 24, 23, 53, 54, 60, 59
16, 19, 20, 26, 25, 55, 56, 62, 61
17, 20, 21, 27, 26, 56, 57, 63, 62
18, 21, 22, 28, 27, 57, 58, 64, 63
19, 22, 23, 29, 28, 58, 59, 65, 64
20, 23, 24, 30, 29, 59, 60, 66, 65
** ... 105 like lines cut
*NSET, NSET=XMIN
1, 7, 13, 19, 25, 31, 37, 43
49, 55, 61, 67, 73, 79, 85, 91
97, 103, 109, 115, 121, 127, 133, 139
145, 151, 157, 163, 169, 175, 181, 187
193, 199, 205, 211
*NSET, NSET=XMAX
6, 12, 18, 24, 30, 36, 42, 48
54, 60, 66, 72, 78, 84, 90, 96
102, 108, 114, 120, 126, 132, 138, 144
150, 156, 162, 168, 174, 180, 186, 192
198, 204, 210, 216
*MATERIAL, NAME=SOLID
*CONDUCTIVITY
50,
*DENSITY
7800.,
*SPECIFIC HEAT
500.,
*SOLID SECTION, ELSET=EALL, MATERIAL=SOLID
*STEP
*HEAT TRANSFER, STEADY STATE
*BOUNDARY
XMIN, 11, 11, 100
XMAX, 11, 11, 300
*NODE FILE
NT
*END STEP
