*HEADING
Two-element cantilever, golden fixture for the response extractor
*NODE, NSET=NALL
1, 0., 0., 0.
2, 1., 0., 0.
3, 2., 0., 0.
4, 0., 1., 0.
5, 1., 1., 0.
6, 2., 1., 0.
7, 0., 0., 1.
8, 1., 0., 1.
9, 2., 0., 1.
10, 0., 1., 1.
11, 1., 1., 1.
12, 2., 1., 1.
*ELEMENT, TYPE=C3D8, ELSET=EALL
1, 1, 2, 5, 4, 7, 8, 11, 10
2, 2, 3, 6, 5, 8, 9, 12, 11
*NSET, NSET=FIX
1, 4, 7, 10
*NSET, NSET=TIP
3, 6, 9, 12
*MATERIAL, NAME=STEEL
*ELASTIC
210000., 0.3
*DENSITY
7.85E-9
*SOLID SECTION, ELSET=EALL, MATERIAL=STEEL
*BOUNDARY
FIX, 1, 3, 0.
*STEP
*STATIC
*CLOAD
3, 3, -25.
6, 3, -25.
9, 3, -25.
12, 3, -25.
*NODE FILE
U
*EL FILE
S
*NODE PRINT, NSET=FIX
RF
*END STEP
